* NGSPICE file created from sm_cpu.ext - technology: sky130A

* Black-box entry subcircuit for sky130_fd_sc_hd__decap_4 abstract view
.subckt sky130_fd_sc_hd__decap_4 VGND VNB VPB VPWR
.ends

* Black-box entry subcircuit for sky130_fd_sc_hd__decap_8 abstract view
.subckt sky130_fd_sc_hd__decap_8 VGND VNB VPB VPWR
.ends

* Black-box entry subcircuit for sky130_fd_sc_hd__mux4_1 abstract view
.subckt sky130_fd_sc_hd__mux4_1 A0 A1 A2 A3 S0 S1 VGND VNB VPB VPWR X
.ends

* Black-box entry subcircuit for sky130_fd_sc_hd__decap_6 abstract view
.subckt sky130_fd_sc_hd__decap_6 VGND VNB VPB VPWR
.ends

* Black-box entry subcircuit for sky130_fd_sc_hd__mux2_1 abstract view
.subckt sky130_fd_sc_hd__mux2_1 A0 A1 S VGND VNB VPB VPWR X
.ends

* Black-box entry subcircuit for sky130_fd_sc_hd__tapvpwrvgnd_1 abstract view
.subckt sky130_fd_sc_hd__tapvpwrvgnd_1 VGND VPWR
.ends

* Black-box entry subcircuit for sky130_fd_sc_hd__fill_1 abstract view
.subckt sky130_fd_sc_hd__fill_1 VGND VNB VPB VPWR
.ends

* Black-box entry subcircuit for sky130_fd_sc_hd__or4_4 abstract view
.subckt sky130_fd_sc_hd__or4_4 A B C D VGND VNB VPB VPWR X
.ends

* Black-box entry subcircuit for sky130_fd_sc_hd__dfxtp_1 abstract view
.subckt sky130_fd_sc_hd__dfxtp_1 CLK D VGND VNB VPB VPWR Q
.ends

* Black-box entry subcircuit for sky130_fd_sc_hd__buf_4 abstract view
.subckt sky130_fd_sc_hd__buf_4 A VGND VNB VPB VPWR X
.ends

* Black-box entry subcircuit for sky130_fd_sc_hd__a22o_1 abstract view
.subckt sky130_fd_sc_hd__a22o_1 A1 A2 B1 B2 VGND VNB VPB VPWR X
.ends

* Black-box entry subcircuit for sky130_fd_sc_hd__clkbuf_2 abstract view
.subckt sky130_fd_sc_hd__clkbuf_2 A VGND VNB VPB VPWR X
.ends

* Black-box entry subcircuit for sky130_fd_sc_hd__mux4_2 abstract view
.subckt sky130_fd_sc_hd__mux4_2 A0 A1 A2 A3 S0 S1 VGND VNB VPB VPWR X
.ends

* Black-box entry subcircuit for sky130_fd_sc_hd__buf_8 abstract view
.subckt sky130_fd_sc_hd__buf_8 A VGND VNB VPB VPWR X
.ends

* Black-box entry subcircuit for sky130_fd_sc_hd__decap_12 abstract view
.subckt sky130_fd_sc_hd__decap_12 VGND VNB VPB VPWR
.ends

* Black-box entry subcircuit for sky130_fd_sc_hd__fill_2 abstract view
.subckt sky130_fd_sc_hd__fill_2 VGND VNB VPB VPWR
.ends

* Black-box entry subcircuit for sky130_fd_sc_hd__o22a_1 abstract view
.subckt sky130_fd_sc_hd__o22a_1 A1 A2 B1 B2 VGND VNB VPB VPWR X
.ends

* Black-box entry subcircuit for sky130_fd_sc_hd__o21ai_1 abstract view
.subckt sky130_fd_sc_hd__o21ai_1 A1 A2 B1 VGND VNB VPB VPWR Y
.ends

* Black-box entry subcircuit for sky130_fd_sc_hd__a21bo_1 abstract view
.subckt sky130_fd_sc_hd__a21bo_1 A1 A2 B1_N VGND VNB VPB VPWR X
.ends

* Black-box entry subcircuit for sky130_fd_sc_hd__buf_2 abstract view
.subckt sky130_fd_sc_hd__buf_2 A VGND VNB VPB VPWR X
.ends

* Black-box entry subcircuit for sky130_fd_sc_hd__mux2_2 abstract view
.subckt sky130_fd_sc_hd__mux2_2 A0 A1 S VGND VNB VPB VPWR X
.ends

* Black-box entry subcircuit for sky130_fd_sc_hd__and3_1 abstract view
.subckt sky130_fd_sc_hd__and3_1 A B C VGND VNB VPB VPWR X
.ends

* Black-box entry subcircuit for sky130_fd_sc_hd__clkbuf_4 abstract view
.subckt sky130_fd_sc_hd__clkbuf_4 A VGND VNB VPB VPWR X
.ends

* Black-box entry subcircuit for sky130_fd_sc_hd__clkbuf_1 abstract view
.subckt sky130_fd_sc_hd__clkbuf_1 A VGND VNB VPB VPWR X
.ends

* Black-box entry subcircuit for sky130_fd_sc_hd__inv_2 abstract view
.subckt sky130_fd_sc_hd__inv_2 A VGND VNB VPB VPWR Y
.ends

* Black-box entry subcircuit for sky130_fd_sc_hd__decap_3 abstract view
.subckt sky130_fd_sc_hd__decap_3 VGND VNB VPB VPWR
.ends

* Black-box entry subcircuit for sky130_fd_sc_hd__or2_2 abstract view
.subckt sky130_fd_sc_hd__or2_2 A B VGND VNB VPB VPWR X
.ends

* Black-box entry subcircuit for sky130_fd_sc_hd__o31a_1 abstract view
.subckt sky130_fd_sc_hd__o31a_1 A1 A2 A3 B1 VGND VNB VPB VPWR X
.ends

* Black-box entry subcircuit for sky130_fd_sc_hd__o221a_1 abstract view
.subckt sky130_fd_sc_hd__o221a_1 A1 A2 B1 B2 C1 VGND VNB VPB VPWR X
.ends

* Black-box entry subcircuit for sky130_fd_sc_hd__o21ai_2 abstract view
.subckt sky130_fd_sc_hd__o21ai_2 A1 A2 B1 VGND VNB VPB VPWR Y
.ends

* Black-box entry subcircuit for sky130_fd_sc_hd__diode_2 abstract view
.subckt sky130_fd_sc_hd__diode_2 DIODE VGND VNB VPB VPWR
.ends

* Black-box entry subcircuit for sky130_fd_sc_hd__nand2_1 abstract view
.subckt sky130_fd_sc_hd__nand2_1 A B VGND VNB VPB VPWR Y
.ends

* Black-box entry subcircuit for sky130_fd_sc_hd__a21o_1 abstract view
.subckt sky130_fd_sc_hd__a21o_1 A1 A2 B1 VGND VNB VPB VPWR X
.ends

* Black-box entry subcircuit for sky130_fd_sc_hd__clkbuf_16 abstract view
.subckt sky130_fd_sc_hd__clkbuf_16 A VGND VNB VPB VPWR X
.ends

* Black-box entry subcircuit for sky130_fd_sc_hd__or3_4 abstract view
.subckt sky130_fd_sc_hd__or3_4 A B C VGND VNB VPB VPWR X
.ends

* Black-box entry subcircuit for sky130_fd_sc_hd__buf_6 abstract view
.subckt sky130_fd_sc_hd__buf_6 A VGND VNB VPB VPWR X
.ends

* Black-box entry subcircuit for sky130_fd_sc_hd__buf_1 abstract view
.subckt sky130_fd_sc_hd__buf_1 A VGND VNB VPB VPWR X
.ends

* Black-box entry subcircuit for sky130_fd_sc_hd__or2_1 abstract view
.subckt sky130_fd_sc_hd__or2_1 A B VGND VNB VPB VPWR X
.ends

* Black-box entry subcircuit for sky130_fd_sc_hd__o211a_1 abstract view
.subckt sky130_fd_sc_hd__o211a_1 A1 A2 B1 C1 VGND VNB VPB VPWR X
.ends

* Black-box entry subcircuit for sky130_fd_sc_hd__clkinv_4 abstract view
.subckt sky130_fd_sc_hd__clkinv_4 A VGND VNB VPB VPWR Y
.ends

* Black-box entry subcircuit for sky130_fd_sc_hd__nor2_1 abstract view
.subckt sky130_fd_sc_hd__nor2_1 A B VGND VNB VPB VPWR Y
.ends

* Black-box entry subcircuit for sky130_fd_sc_hd__or2_4 abstract view
.subckt sky130_fd_sc_hd__or2_4 A B VGND VNB VPB VPWR X
.ends

* Black-box entry subcircuit for sky130_fd_sc_hd__mux2_4 abstract view
.subckt sky130_fd_sc_hd__mux2_4 A0 A1 S VGND VNB VPB VPWR X
.ends

* Black-box entry subcircuit for sky130_fd_sc_hd__or3_1 abstract view
.subckt sky130_fd_sc_hd__or3_1 A B C VGND VNB VPB VPWR X
.ends

* Black-box entry subcircuit for sky130_fd_sc_hd__o21ai_4 abstract view
.subckt sky130_fd_sc_hd__o21ai_4 A1 A2 B1 VGND VNB VPB VPWR Y
.ends

* Black-box entry subcircuit for sky130_fd_sc_hd__nand2_2 abstract view
.subckt sky130_fd_sc_hd__nand2_2 A B VGND VNB VPB VPWR Y
.ends

* Black-box entry subcircuit for sky130_fd_sc_hd__o221ai_1 abstract view
.subckt sky130_fd_sc_hd__o221ai_1 A1 A2 B1 B2 C1 VGND VNB VPB VPWR Y
.ends

* Black-box entry subcircuit for sky130_fd_sc_hd__o221ai_2 abstract view
.subckt sky130_fd_sc_hd__o221ai_2 A1 A2 B1 B2 C1 VGND VNB VPB VPWR Y
.ends

* Black-box entry subcircuit for sky130_fd_sc_hd__o2bb2a_1 abstract view
.subckt sky130_fd_sc_hd__o2bb2a_1 A1_N A2_N B1 B2 VGND VNB VPB VPWR X
.ends

* Black-box entry subcircuit for sky130_fd_sc_hd__and2_1 abstract view
.subckt sky130_fd_sc_hd__and2_1 A B VGND VNB VPB VPWR X
.ends

* Black-box entry subcircuit for sky130_fd_sc_hd__o21a_1 abstract view
.subckt sky130_fd_sc_hd__o21a_1 A1 A2 B1 VGND VNB VPB VPWR X
.ends

* Black-box entry subcircuit for sky130_fd_sc_hd__or4b_4 abstract view
.subckt sky130_fd_sc_hd__or4b_4 A B C D_N VGND VNB VPB VPWR X
.ends

* Black-box entry subcircuit for sky130_fd_sc_hd__a31o_1 abstract view
.subckt sky130_fd_sc_hd__a31o_1 A1 A2 A3 B1 VGND VNB VPB VPWR X
.ends

* Black-box entry subcircuit for sky130_fd_sc_hd__nor3_2 abstract view
.subckt sky130_fd_sc_hd__nor3_2 A B C VGND VNB VPB VPWR Y
.ends

* Black-box entry subcircuit for sky130_fd_sc_hd__a21oi_4 abstract view
.subckt sky130_fd_sc_hd__a21oi_4 A1 A2 B1 VGND VNB VPB VPWR Y
.ends

* Black-box entry subcircuit for sky130_fd_sc_hd__nand2b_1 abstract view
.subckt sky130_fd_sc_hd__nand2b_1 A_N B VGND VNB VPB VPWR Y
.ends

* Black-box entry subcircuit for sky130_fd_sc_hd__nor3_4 abstract view
.subckt sky130_fd_sc_hd__nor3_4 A B C VGND VNB VPB VPWR Y
.ends

* Black-box entry subcircuit for sky130_fd_sc_hd__or3_2 abstract view
.subckt sky130_fd_sc_hd__or3_2 A B C VGND VNB VPB VPWR X
.ends

* Black-box entry subcircuit for sky130_fd_sc_hd__a2bb2o_1 abstract view
.subckt sky130_fd_sc_hd__a2bb2o_1 A1_N A2_N B1 B2 VGND VNB VPB VPWR X
.ends

* Black-box entry subcircuit for sky130_fd_sc_hd__clkbuf_8 abstract view
.subckt sky130_fd_sc_hd__clkbuf_8 A VGND VNB VPB VPWR X
.ends

* Black-box entry subcircuit for sky130_fd_sc_hd__a31oi_2 abstract view
.subckt sky130_fd_sc_hd__a31oi_2 A1 A2 A3 B1 VGND VNB VPB VPWR Y
.ends

* Black-box entry subcircuit for sky130_fd_sc_hd__a2bb2oi_1 abstract view
.subckt sky130_fd_sc_hd__a2bb2oi_1 A1_N A2_N B1 B2 VGND VNB VPB VPWR Y
.ends

* Black-box entry subcircuit for sky130_fd_sc_hd__dfrtp_2 abstract view
.subckt sky130_fd_sc_hd__dfrtp_2 CLK D RESET_B VGND VNB VPB VPWR Q
.ends

* Black-box entry subcircuit for sky130_fd_sc_hd__o221ai_4 abstract view
.subckt sky130_fd_sc_hd__o221ai_4 A1 A2 B1 B2 C1 VGND VNB VPB VPWR Y
.ends

* Black-box entry subcircuit for sky130_fd_sc_hd__a211o_1 abstract view
.subckt sky130_fd_sc_hd__a211o_1 A1 A2 B1 C1 VGND VNB VPB VPWR X
.ends

* Black-box entry subcircuit for sky130_fd_sc_hd__o22ai_1 abstract view
.subckt sky130_fd_sc_hd__o22ai_1 A1 A2 B1 B2 VGND VNB VPB VPWR Y
.ends

* Black-box entry subcircuit for sky130_fd_sc_hd__inv_4 abstract view
.subckt sky130_fd_sc_hd__inv_4 A VGND VNB VPB VPWR Y
.ends

* Black-box entry subcircuit for sky130_fd_sc_hd__or4_1 abstract view
.subckt sky130_fd_sc_hd__or4_1 A B C D VGND VNB VPB VPWR X
.ends

* Black-box entry subcircuit for sky130_fd_sc_hd__o22a_2 abstract view
.subckt sky130_fd_sc_hd__o22a_2 A1 A2 B1 B2 VGND VNB VPB VPWR X
.ends

* Black-box entry subcircuit for sky130_fd_sc_hd__a221o_1 abstract view
.subckt sky130_fd_sc_hd__a221o_1 A1 A2 B1 B2 C1 VGND VNB VPB VPWR X
.ends

* Black-box entry subcircuit for sky130_fd_sc_hd__o32a_1 abstract view
.subckt sky130_fd_sc_hd__o32a_1 A1 A2 A3 B1 B2 VGND VNB VPB VPWR X
.ends

* Black-box entry subcircuit for sky130_fd_sc_hd__a22o_2 abstract view
.subckt sky130_fd_sc_hd__a22o_2 A1 A2 B1 B2 VGND VNB VPB VPWR X
.ends

* Black-box entry subcircuit for sky130_fd_sc_hd__o31ai_2 abstract view
.subckt sky130_fd_sc_hd__o31ai_2 A1 A2 A3 B1 VGND VNB VPB VPWR Y
.ends

* Black-box entry subcircuit for sky130_fd_sc_hd__dfrtp_4 abstract view
.subckt sky130_fd_sc_hd__dfrtp_4 CLK D RESET_B VGND VNB VPB VPWR Q
.ends

* Black-box entry subcircuit for sky130_fd_sc_hd__a32o_1 abstract view
.subckt sky130_fd_sc_hd__a32o_1 A1 A2 A3 B1 B2 VGND VNB VPB VPWR X
.ends

* Black-box entry subcircuit for sky130_fd_sc_hd__or3b_4 abstract view
.subckt sky130_fd_sc_hd__or3b_4 A B C_N VGND VNB VPB VPWR X
.ends

* Black-box entry subcircuit for sky130_fd_sc_hd__a21oi_1 abstract view
.subckt sky130_fd_sc_hd__a21oi_1 A1 A2 B1 VGND VNB VPB VPWR Y
.ends

* Black-box entry subcircuit for sky130_fd_sc_hd__o2111a_1 abstract view
.subckt sky130_fd_sc_hd__o2111a_1 A1 A2 B1 C1 D1 VGND VNB VPB VPWR X
.ends

* Black-box entry subcircuit for sky130_fd_sc_hd__nor2_2 abstract view
.subckt sky130_fd_sc_hd__nor2_2 A B VGND VNB VPB VPWR Y
.ends

* Black-box entry subcircuit for sky130_fd_sc_hd__o2bb2ai_1 abstract view
.subckt sky130_fd_sc_hd__o2bb2ai_1 A1_N A2_N B1 B2 VGND VNB VPB VPWR Y
.ends

* Black-box entry subcircuit for sky130_fd_sc_hd__and3_4 abstract view
.subckt sky130_fd_sc_hd__and3_4 A B C VGND VNB VPB VPWR X
.ends

* Black-box entry subcircuit for sky130_fd_sc_hd__nor2_4 abstract view
.subckt sky130_fd_sc_hd__nor2_4 A B VGND VNB VPB VPWR Y
.ends

* Black-box entry subcircuit for sky130_fd_sc_hd__a31o_2 abstract view
.subckt sky130_fd_sc_hd__a31o_2 A1 A2 A3 B1 VGND VNB VPB VPWR X
.ends

* Black-box entry subcircuit for sky130_fd_sc_hd__dlymetal6s2s_1 abstract view
.subckt sky130_fd_sc_hd__dlymetal6s2s_1 A VGND VNB VPB VPWR X
.ends

* Black-box entry subcircuit for sky130_fd_sc_hd__o22ai_2 abstract view
.subckt sky130_fd_sc_hd__o22ai_2 A1 A2 B1 B2 VGND VNB VPB VPWR Y
.ends

* Black-box entry subcircuit for sky130_fd_sc_hd__nor4_2 abstract view
.subckt sky130_fd_sc_hd__nor4_2 A B C D VGND VNB VPB VPWR Y
.ends

* Black-box entry subcircuit for sky130_fd_sc_hd__or2b_1 abstract view
.subckt sky130_fd_sc_hd__or2b_1 A B_N VGND VNB VPB VPWR X
.ends

* Black-box entry subcircuit for sky130_fd_sc_hd__and4_4 abstract view
.subckt sky130_fd_sc_hd__and4_4 A B C D VGND VNB VPB VPWR X
.ends

* Black-box entry subcircuit for sky130_fd_sc_hd__nand2_8 abstract view
.subckt sky130_fd_sc_hd__nand2_8 A B VGND VNB VPB VPWR Y
.ends

* Black-box entry subcircuit for sky130_fd_sc_hd__mux2_8 abstract view
.subckt sky130_fd_sc_hd__mux2_8 A0 A1 S VGND VNB VPB VPWR X
.ends

* Black-box entry subcircuit for sky130_fd_sc_hd__a21oi_2 abstract view
.subckt sky130_fd_sc_hd__a21oi_2 A1 A2 B1 VGND VNB VPB VPWR Y
.ends

* Black-box entry subcircuit for sky130_fd_sc_hd__o311a_1 abstract view
.subckt sky130_fd_sc_hd__o311a_1 A1 A2 A3 B1 C1 VGND VNB VPB VPWR X
.ends

* Black-box entry subcircuit for sky130_fd_sc_hd__o311a_2 abstract view
.subckt sky130_fd_sc_hd__o311a_2 A1 A2 A3 B1 C1 VGND VNB VPB VPWR X
.ends

* Black-box entry subcircuit for sky130_fd_sc_hd__a31oi_1 abstract view
.subckt sky130_fd_sc_hd__a31oi_1 A1 A2 A3 B1 VGND VNB VPB VPWR Y
.ends

* Black-box entry subcircuit for sky130_fd_sc_hd__o2111a_2 abstract view
.subckt sky130_fd_sc_hd__o2111a_2 A1 A2 B1 C1 D1 VGND VNB VPB VPWR X
.ends

* Black-box entry subcircuit for sky130_fd_sc_hd__dfxtp_2 abstract view
.subckt sky130_fd_sc_hd__dfxtp_2 CLK D VGND VNB VPB VPWR Q
.ends

* Black-box entry subcircuit for sky130_fd_sc_hd__or4bb_4 abstract view
.subckt sky130_fd_sc_hd__or4bb_4 A B C_N D_N VGND VNB VPB VPWR X
.ends

.subckt sm_cpu clk imAddr[0] imAddr[10] imAddr[11] imAddr[12] imAddr[13] imAddr[14]
+ imAddr[15] imAddr[16] imAddr[17] imAddr[18] imAddr[19] imAddr[1] imAddr[20] imAddr[21]
+ imAddr[22] imAddr[23] imAddr[24] imAddr[25] imAddr[26] imAddr[27] imAddr[28] imAddr[29]
+ imAddr[2] imAddr[30] imAddr[31] imAddr[3] imAddr[4] imAddr[5] imAddr[6] imAddr[7]
+ imAddr[8] imAddr[9] imData[0] imData[10] imData[11] imData[12] imData[13] imData[14]
+ imData[15] imData[16] imData[17] imData[18] imData[19] imData[1] imData[20] imData[21]
+ imData[22] imData[23] imData[24] imData[25] imData[26] imData[27] imData[28] imData[29]
+ imData[2] imData[30] imData[31] imData[3] imData[4] imData[5] imData[6] imData[7]
+ imData[8] imData[9] regAddr[0] regAddr[1] regAddr[2] regAddr[3] regAddr[4] regData[0]
+ regData[10] regData[11] regData[12] regData[13] regData[14] regData[15] regData[16]
+ regData[17] regData[18] regData[19] regData[1] regData[20] regData[21] regData[22]
+ regData[23] regData[24] regData[25] regData[26] regData[27] regData[28] regData[29]
+ regData[2] regData[30] regData[31] regData[3] regData[4] regData[5] regData[6] regData[7]
+ regData[8] regData[9] rst_n VPWR VGND
XFILLER_55_726 VGND VGND VPWR VPWR sky130_fd_sc_hd__decap_4
XFILLER_39_277 VGND VGND VPWR VPWR sky130_fd_sc_hd__decap_8
X_7963_ _8445_/Q _8317_/Q _8381_/Q _8573_/Q _7990_/S0 _8009_/S1 VGND VGND VPWR VPWR
+ _7963_/X sky130_fd_sc_hd__mux4_1
XFILLER_94_372 VGND VGND VPWR VPWR sky130_fd_sc_hd__decap_4
XFILLER_55_737 VGND VGND VPWR VPWR sky130_fd_sc_hd__decap_4
XFILLER_70_707 VGND VGND VPWR VPWR sky130_fd_sc_hd__decap_6
X_6914_ _6913_/X _6942_/X _6939_/S VGND VGND VPWR VPWR _6914_/X sky130_fd_sc_hd__mux2_1
XFILLER_54_269 VGND VGND VPWR VPWR sky130_fd_sc_hd__decap_4
XFILLER_54_258 VGND VGND VPWR VPWR sky130_fd_sc_hd__decap_4
XFILLER_82_589 VGND VGND VPWR VPWR sky130_fd_sc_hd__decap_8
X_7894_ _8538_/Q _8922_/Q _8858_/Q _8890_/Q _7894_/S0 _7897_/S1 VGND VGND VPWR VPWR
+ _7894_/X sky130_fd_sc_hd__mux4_1
XFILLER_23_623 VGND VGND VPWR VPWR sky130_fd_sc_hd__decap_4
XPHY_1707 VGND VPWR sky130_fd_sc_hd__tapvpwrvgnd_1
X_6845_ _5871_/Y _7006_/X _6943_/S VGND VGND VPWR VPWR _6845_/X sky130_fd_sc_hd__mux2_1
XFILLER_22_122 VGND VGND VPWR VPWR sky130_fd_sc_hd__decap_4
XFILLER_23_645 VGND VGND VPWR VPWR sky130_fd_sc_hd__fill_1
XPHY_1729 VGND VPWR sky130_fd_sc_hd__tapvpwrvgnd_1
XPHY_1718 VGND VPWR sky130_fd_sc_hd__tapvpwrvgnd_1
X_3988_ _3989_/A _3988_/B _3988_/C _3988_/D VGND VGND VPWR VPWR _5956_/A sky130_fd_sc_hd__or4_4
XFILLER_10_306 VGND VGND VPWR VPWR sky130_fd_sc_hd__decap_8
XFILLER_22_144 VGND VGND VPWR VPWR sky130_fd_sc_hd__decap_4
XFILLER_23_667 VGND VGND VPWR VPWR sky130_fd_sc_hd__decap_4
X_6776_ _6347_/Y _6338_/Y _6777_/S VGND VGND VPWR VPWR _9086_/D sky130_fd_sc_hd__mux2_1
X_8515_ _8932_/CLK _8515_/D VGND VGND VPWR VPWR _8515_/Q sky130_fd_sc_hd__dfxtp_1
X_5727_ _5763_/A VGND VGND VPWR VPWR _5742_/A sky130_fd_sc_hd__buf_4
XFILLER_50_486 VGND VGND VPWR VPWR sky130_fd_sc_hd__decap_6
XFILLER_22_199 VGND VGND VPWR VPWR sky130_fd_sc_hd__fill_1
X_8446_ _8669_/CLK _8446_/D VGND VGND VPWR VPWR _8446_/Q sky130_fd_sc_hd__dfxtp_1
X_5658_ _8108_/Q _5652_/X _5452_/X _5653_/X VGND VGND VPWR VPWR _8108_/D sky130_fd_sc_hd__a22o_1
XFILLER_124_709 VGND VGND VPWR VPWR sky130_fd_sc_hd__decap_4
XFILLER_117_750 VGND VGND VPWR VPWR sky130_fd_sc_hd__decap_4
X_5589_ _8155_/Q _5581_/X _5416_/X _5584_/X VGND VGND VPWR VPWR _8155_/D sky130_fd_sc_hd__a22o_1
X_4609_ _4609_/A VGND VGND VPWR VPWR _4609_/X sky130_fd_sc_hd__clkbuf_2
X_8377_ _8953_/CLK _8377_/D VGND VGND VPWR VPWR _8377_/Q sky130_fd_sc_hd__dfxtp_1
XFILLER_123_219 VGND VGND VPWR VPWR sky130_fd_sc_hd__decap_8
XFILLER_117_794 VGND VGND VPWR VPWR sky130_fd_sc_hd__decap_4
XFILLER_117_783 VGND VGND VPWR VPWR sky130_fd_sc_hd__decap_4
XFILLER_117_33 VGND VGND VPWR VPWR sky130_fd_sc_hd__fill_1
X_7328_ _8281_/Q _8249_/Q _8217_/Q _9017_/Q _7340_/S0 _7340_/S1 VGND VGND VPWR VPWR
+ _7328_/X sky130_fd_sc_hd__mux4_1
XFILLER_131_241 VGND VGND VPWR VPWR sky130_fd_sc_hd__decap_8
X_7259_ _8114_/Q _8082_/Q _8050_/Q _9042_/Q _7288_/S0 _7288_/S1 VGND VGND VPWR VPWR
+ _7259_/X sky130_fd_sc_hd__mux4_2
XFILLER_89_199 VGND VGND VPWR VPWR sky130_fd_sc_hd__decap_4
XFILLER_18_406 VGND VGND VPWR VPWR sky130_fd_sc_hd__decap_8
XFILLER_46_704 VGND VGND VPWR VPWR sky130_fd_sc_hd__decap_8
XFILLER_93_36 VGND VGND VPWR VPWR sky130_fd_sc_hd__fill_1
Xrepeater190 _7374_/S0 VGND VGND VPWR VPWR _6343_/A sky130_fd_sc_hd__buf_8
XFILLER_93_58 VGND VGND VPWR VPWR sky130_fd_sc_hd__decap_4
XFILLER_26_30 VGND VGND VPWR VPWR sky130_fd_sc_hd__decap_4
XFILLER_45_269 VGND VGND VPWR VPWR sky130_fd_sc_hd__decap_4
XFILLER_26_85 VGND VGND VPWR VPWR sky130_fd_sc_hd__fill_1
XFILLER_13_166 VGND VGND VPWR VPWR sky130_fd_sc_hd__decap_4
XFILLER_9_115 VGND VGND VPWR VPWR sky130_fd_sc_hd__decap_4
XFILLER_9_126 VGND VGND VPWR VPWR sky130_fd_sc_hd__decap_8
XFILLER_127_525 VGND VGND VPWR VPWR sky130_fd_sc_hd__decap_4
XFILLER_127_514 VGND VGND VPWR VPWR sky130_fd_sc_hd__decap_4
XFILLER_5_343 VGND VGND VPWR VPWR sky130_fd_sc_hd__decap_12
XFILLER_135_591 VGND VGND VPWR VPWR sky130_fd_sc_hd__fill_1
XFILLER_107_271 VGND VGND VPWR VPWR sky130_fd_sc_hd__fill_2
XFILLER_123_742 VGND VGND VPWR VPWR sky130_fd_sc_hd__decap_4
XFILLER_96_637 VGND VGND VPWR VPWR sky130_fd_sc_hd__decap_8
XFILLER_1_571 VGND VGND VPWR VPWR sky130_fd_sc_hd__decap_12
XFILLER_3_23 VGND VGND VPWR VPWR sky130_fd_sc_hd__decap_12
XFILLER_49_564 VGND VGND VPWR VPWR sky130_fd_sc_hd__decap_6
XFILLER_92_821 VGND VGND VPWR VPWR sky130_fd_sc_hd__decap_4
XFILLER_76_372 VGND VGND VPWR VPWR sky130_fd_sc_hd__decap_4
XFILLER_36_258 VGND VGND VPWR VPWR sky130_fd_sc_hd__decap_4
X_4960_ _8532_/Q _4957_/X _4890_/X _4958_/X VGND VGND VPWR VPWR _8532_/D sky130_fd_sc_hd__a22o_1
XFILLER_45_781 VGND VGND VPWR VPWR sky130_fd_sc_hd__decap_4
X_4891_ _8564_/Q _4886_/X _4890_/X _4888_/X VGND VGND VPWR VPWR _8564_/D sky130_fd_sc_hd__a22o_1
XFILLER_20_604 VGND VGND VPWR VPWR sky130_fd_sc_hd__fill_1
X_6630_ _6509_/Y _6004_/A _6511_/B _6615_/X VGND VGND VPWR VPWR _6630_/X sky130_fd_sc_hd__o22a_1
X_6561_ _5982_/A _6073_/Y _6438_/X VGND VGND VPWR VPWR _6561_/Y sky130_fd_sc_hd__o21ai_1
XFILLER_32_486 VGND VGND VPWR VPWR sky130_fd_sc_hd__decap_4
X_8300_ _8780_/CLK _8300_/D VGND VGND VPWR VPWR _8300_/Q sky130_fd_sc_hd__dfxtp_1
X_5512_ _8206_/Q _5508_/X _5448_/X _5509_/X VGND VGND VPWR VPWR _8206_/D sky130_fd_sc_hd__a22o_1
X_6492_ _6827_/X _6002_/X _6491_/X VGND VGND VPWR VPWR _6536_/A sky130_fd_sc_hd__a21bo_1
X_8231_ _9000_/CLK _8231_/D VGND VGND VPWR VPWR _8231_/Q sky130_fd_sc_hd__dfxtp_1
X_5443_ _6794_/X VGND VGND VPWR VPWR _5443_/X sky130_fd_sc_hd__clkbuf_2
X_8162_ _9029_/CLK _8162_/D VGND VGND VPWR VPWR _8162_/Q sky130_fd_sc_hd__dfxtp_1
X_5374_ _5374_/A VGND VGND VPWR VPWR _5374_/X sky130_fd_sc_hd__buf_2
X_7113_ _8420_/Q _8292_/Q _8356_/Q _8548_/Q _7179_/S0 _7180_/S1 VGND VGND VPWR VPWR
+ _7113_/X sky130_fd_sc_hd__mux4_1
X_4325_ _8891_/Q _4313_/X _4324_/X _4316_/X VGND VGND VPWR VPWR _8891_/D sky130_fd_sc_hd__a22o_1
XFILLER_87_626 VGND VGND VPWR VPWR sky130_fd_sc_hd__fill_1
X_8093_ _8725_/CLK _8093_/D VGND VGND VPWR VPWR _8093_/Q sky130_fd_sc_hd__dfxtp_1
X_4256_ _8931_/Q _4251_/X _4094_/X _4252_/X VGND VGND VPWR VPWR _8931_/D sky130_fd_sc_hd__a22o_1
X_7044_ _7856_/X _7861_/X _7059_/S VGND VGND VPWR VPWR _7044_/X sky130_fd_sc_hd__mux2_1
X_4187_ _8976_/Q _4185_/X _4049_/X _4186_/X VGND VGND VPWR VPWR _8976_/D sky130_fd_sc_hd__a22o_1
XFILLER_83_821 VGND VGND VPWR VPWR sky130_fd_sc_hd__decap_4
X_8995_ _9027_/CLK _8995_/D VGND VGND VPWR VPWR _8995_/Q sky130_fd_sc_hd__dfxtp_1
XFILLER_43_707 VGND VGND VPWR VPWR sky130_fd_sc_hd__decap_8
X_7946_ _7942_/X _7943_/X _7944_/X _7945_/X _8006_/S0 _8011_/S1 VGND VGND VPWR VPWR
+ _7946_/X sky130_fd_sc_hd__mux4_2
XPHY_2216 VGND VPWR sky130_fd_sc_hd__tapvpwrvgnd_1
XPHY_2205 VGND VPWR sky130_fd_sc_hd__tapvpwrvgnd_1
X_7877_ _8601_/Q _8153_/Q _8505_/Q _8793_/Q _7900_/S0 _7900_/S1 VGND VGND VPWR VPWR
+ _7877_/X sky130_fd_sc_hd__mux4_1
XPHY_905 VGND VPWR sky130_fd_sc_hd__tapvpwrvgnd_1
XPHY_916 VGND VPWR sky130_fd_sc_hd__tapvpwrvgnd_1
XPHY_927 VGND VPWR sky130_fd_sc_hd__tapvpwrvgnd_1
XPHY_2238 VGND VPWR sky130_fd_sc_hd__tapvpwrvgnd_1
XPHY_2249 VGND VPWR sky130_fd_sc_hd__tapvpwrvgnd_1
XPHY_2227 VGND VPWR sky130_fd_sc_hd__tapvpwrvgnd_1
XPHY_1515 VGND VPWR sky130_fd_sc_hd__tapvpwrvgnd_1
XPHY_1504 VGND VPWR sky130_fd_sc_hd__tapvpwrvgnd_1
X_6828_ _6651_/X _7027_/X _6830_/S VGND VGND VPWR VPWR _6828_/X sky130_fd_sc_hd__mux2_2
XPHY_938 VGND VPWR sky130_fd_sc_hd__tapvpwrvgnd_1
XPHY_949 VGND VPWR sky130_fd_sc_hd__tapvpwrvgnd_1
XPHY_1548 VGND VPWR sky130_fd_sc_hd__tapvpwrvgnd_1
XPHY_1537 VGND VPWR sky130_fd_sc_hd__tapvpwrvgnd_1
XPHY_1526 VGND VPWR sky130_fd_sc_hd__tapvpwrvgnd_1
XFILLER_10_114 VGND VGND VPWR VPWR sky130_fd_sc_hd__fill_1
XFILLER_137_823 VGND VGND VPWR VPWR sky130_fd_sc_hd__fill_2
XFILLER_109_514 VGND VGND VPWR VPWR sky130_fd_sc_hd__decap_4
XPHY_1559 VGND VPWR sky130_fd_sc_hd__tapvpwrvgnd_1
XFILLER_7_619 VGND VGND VPWR VPWR sky130_fd_sc_hd__decap_8
X_6759_ _6390_/X _6236_/Y _6777_/S VGND VGND VPWR VPWR _9069_/D sky130_fd_sc_hd__mux2_1
XFILLER_136_366 VGND VGND VPWR VPWR sky130_fd_sc_hd__decap_4
XFILLER_136_355 VGND VGND VPWR VPWR sky130_fd_sc_hd__decap_4
XFILLER_128_54 VGND VGND VPWR VPWR sky130_fd_sc_hd__decap_12
XFILLER_109_569 VGND VGND VPWR VPWR sky130_fd_sc_hd__fill_1
X_8429_ _8940_/CLK _8429_/D VGND VGND VPWR VPWR _8429_/Q sky130_fd_sc_hd__dfxtp_1
XFILLER_12_87 VGND VGND VPWR VPWR sky130_fd_sc_hd__decap_8
XFILLER_128_87 VGND VGND VPWR VPWR sky130_fd_sc_hd__decap_12
XFILLER_2_302 VGND VGND VPWR VPWR sky130_fd_sc_hd__decap_12
XFILLER_105_753 VGND VGND VPWR VPWR sky130_fd_sc_hd__decap_4
XFILLER_105_742 VGND VGND VPWR VPWR sky130_fd_sc_hd__decap_4
XFILLER_88_58 VGND VGND VPWR VPWR sky130_fd_sc_hd__decap_8
XFILLER_132_594 VGND VGND VPWR VPWR sky130_fd_sc_hd__decap_4
XFILLER_120_734 VGND VGND VPWR VPWR sky130_fd_sc_hd__decap_4
XFILLER_92_139 VGND VGND VPWR VPWR sky130_fd_sc_hd__decap_4
XFILLER_86_681 VGND VGND VPWR VPWR sky130_fd_sc_hd__decap_8
XFILLER_73_320 VGND VGND VPWR VPWR sky130_fd_sc_hd__decap_4
XFILLER_58_372 VGND VGND VPWR VPWR sky130_fd_sc_hd__decap_4
XFILLER_58_361 VGND VGND VPWR VPWR sky130_fd_sc_hd__decap_8
XFILLER_18_258 VGND VGND VPWR VPWR sky130_fd_sc_hd__decap_4
XFILLER_18_269 VGND VGND VPWR VPWR sky130_fd_sc_hd__decap_4
XFILLER_34_729 VGND VGND VPWR VPWR sky130_fd_sc_hd__decap_8
XFILLER_14_486 VGND VGND VPWR VPWR sky130_fd_sc_hd__decap_4
XFILLER_41_294 VGND VGND VPWR VPWR sky130_fd_sc_hd__decap_4
XFILLER_10_681 VGND VGND VPWR VPWR sky130_fd_sc_hd__decap_12
XFILLER_5_151 VGND VGND VPWR VPWR sky130_fd_sc_hd__decap_12
XFILLER_5_184 VGND VGND VPWR VPWR sky130_fd_sc_hd__decap_12
XFILLER_123_583 VGND VGND VPWR VPWR sky130_fd_sc_hd__decap_4
X_5090_ _8446_/Q _5085_/X _4866_/X _5088_/X VGND VGND VPWR VPWR _8446_/D sky130_fd_sc_hd__a22o_1
X_4110_ _6809_/X VGND VGND VPWR VPWR _4668_/A sky130_fd_sc_hd__clkbuf_2
XFILLER_110_266 VGND VGND VPWR VPWR sky130_fd_sc_hd__decap_4
XFILLER_96_467 VGND VGND VPWR VPWR sky130_fd_sc_hd__decap_4
X_4041_ _9043_/Q _4034_/X _4040_/X _4037_/X VGND VGND VPWR VPWR _9043_/D sky130_fd_sc_hd__a22o_1
XFILLER_37_512 VGND VGND VPWR VPWR sky130_fd_sc_hd__fill_1
XFILLER_91_172 VGND VGND VPWR VPWR sky130_fd_sc_hd__decap_4
XFILLER_80_824 VGND VGND VPWR VPWR sky130_fd_sc_hd__fill_1
X_8780_ _8780_/CLK _8780_/D VGND VGND VPWR VPWR _8780_/Q sky130_fd_sc_hd__dfxtp_1
X_5992_ _5992_/A _5992_/B _5992_/C VGND VGND VPWR VPWR _5992_/X sky130_fd_sc_hd__and3_1
X_7800_ _8981_/Q _8405_/Q _8181_/Q _8757_/Q _7895_/S0 _7895_/S1 VGND VGND VPWR VPWR
+ _7800_/X sky130_fd_sc_hd__mux4_1
X_4943_ _4979_/A VGND VGND VPWR VPWR _4958_/A sky130_fd_sc_hd__clkbuf_4
X_7731_ _7727_/X _7728_/X _7729_/X _7730_/X _7811_/S0 _5873_/B VGND VGND VPWR VPWR
+ _7731_/X sky130_fd_sc_hd__mux4_2
XFILLER_33_740 VGND VGND VPWR VPWR sky130_fd_sc_hd__fill_1
X_7662_ _8814_/Q _8334_/Q _8942_/Q _8462_/Q _7665_/S0 _7665_/S1 VGND VGND VPWR VPWR
+ _7662_/X sky130_fd_sc_hd__mux4_1
XFILLER_60_570 VGND VGND VPWR VPWR sky130_fd_sc_hd__decap_8
XFILLER_20_423 VGND VGND VPWR VPWR sky130_fd_sc_hd__decap_4
X_4874_ _4886_/A VGND VGND VPWR VPWR _4874_/X sky130_fd_sc_hd__clkbuf_2
X_6613_ _7042_/X _6612_/Y _6460_/B VGND VGND VPWR VPWR _6613_/Y sky130_fd_sc_hd__o21ai_1
X_7593_ _8427_/Q _8299_/Q _8363_/Q _8555_/Q _7595_/S0 _7595_/S1 VGND VGND VPWR VPWR
+ _7593_/X sky130_fd_sc_hd__mux4_2
Xclkbuf_4_12_0_clk clkbuf_3_6_0_clk/X VGND VGND VPWR VPWR _9063_/CLK sky130_fd_sc_hd__clkbuf_1
X_6544_ _6544_/A VGND VGND VPWR VPWR _6544_/Y sky130_fd_sc_hd__inv_2
X_6475_ _6475_/A VGND VGND VPWR VPWR _6475_/Y sky130_fd_sc_hd__inv_2
X_5426_ _6801_/X VGND VGND VPWR VPWR _5426_/X sky130_fd_sc_hd__clkbuf_2
X_8214_ _9048_/CLK _8214_/D VGND VGND VPWR VPWR _8214_/Q sky130_fd_sc_hd__dfxtp_1
XFILLER_102_701 VGND VGND VPWR VPWR sky130_fd_sc_hd__decap_4
X_5357_ _5373_/A VGND VGND VPWR VPWR _5357_/X sky130_fd_sc_hd__clkbuf_2
X_8145_ _9009_/CLK _8145_/D VGND VGND VPWR VPWR _8145_/Q sky130_fd_sc_hd__dfxtp_1
X_4308_ _8898_/Q _4302_/X _4097_/X _4303_/X VGND VGND VPWR VPWR _8898_/D sky130_fd_sc_hd__a22o_1
X_8076_ _9004_/CLK _8076_/D VGND VGND VPWR VPWR _8076_/Q sky130_fd_sc_hd__dfxtp_1
X_5288_ _8334_/Q _5284_/X _5176_/X _5285_/X VGND VGND VPWR VPWR _8334_/D sky130_fd_sc_hd__a22o_1
XFILLER_114_23 VGND VGND VPWR VPWR sky130_fd_sc_hd__decap_6
X_7027_ _6592_/Y _6114_/X _7069_/S VGND VGND VPWR VPWR _7027_/X sky130_fd_sc_hd__mux2_2
X_4239_ _8944_/Q _4237_/X _4049_/X _4238_/X VGND VGND VPWR VPWR _8944_/D sky130_fd_sc_hd__a22o_1
XFILLER_74_139 VGND VGND VPWR VPWR sky130_fd_sc_hd__decap_4
XFILLER_68_670 VGND VGND VPWR VPWR sky130_fd_sc_hd__decap_4
XFILLER_56_821 VGND VGND VPWR VPWR sky130_fd_sc_hd__decap_4
XFILLER_55_320 VGND VGND VPWR VPWR sky130_fd_sc_hd__decap_4
XFILLER_15_206 VGND VGND VPWR VPWR sky130_fd_sc_hd__decap_4
X_8978_ _9044_/CLK _8978_/D VGND VGND VPWR VPWR _8978_/Q sky130_fd_sc_hd__dfxtp_1
X_7929_ _8123_/Q _8091_/Q _8059_/Q _9051_/Q _7949_/S0 input9/X VGND VGND VPWR VPWR
+ _7929_/X sky130_fd_sc_hd__mux4_1
XPHY_702 VGND VPWR sky130_fd_sc_hd__tapvpwrvgnd_1
XFILLER_130_66 VGND VGND VPWR VPWR sky130_fd_sc_hd__decap_12
XPHY_2035 VGND VPWR sky130_fd_sc_hd__tapvpwrvgnd_1
XPHY_2024 VGND VPWR sky130_fd_sc_hd__tapvpwrvgnd_1
XPHY_2013 VGND VPWR sky130_fd_sc_hd__tapvpwrvgnd_1
XPHY_2002 VGND VPWR sky130_fd_sc_hd__tapvpwrvgnd_1
XFILLER_24_762 VGND VGND VPWR VPWR sky130_fd_sc_hd__decap_8
XPHY_713 VGND VPWR sky130_fd_sc_hd__tapvpwrvgnd_1
XPHY_724 VGND VPWR sky130_fd_sc_hd__tapvpwrvgnd_1
XPHY_735 VGND VPWR sky130_fd_sc_hd__tapvpwrvgnd_1
XFILLER_130_99 VGND VGND VPWR VPWR sky130_fd_sc_hd__decap_12
XPHY_2057 VGND VPWR sky130_fd_sc_hd__tapvpwrvgnd_1
XPHY_2068 VGND VPWR sky130_fd_sc_hd__tapvpwrvgnd_1
XPHY_2046 VGND VPWR sky130_fd_sc_hd__tapvpwrvgnd_1
XPHY_1312 VGND VPWR sky130_fd_sc_hd__tapvpwrvgnd_1
XPHY_1323 VGND VPWR sky130_fd_sc_hd__tapvpwrvgnd_1
XPHY_1301 VGND VPWR sky130_fd_sc_hd__tapvpwrvgnd_1
XFILLER_70_389 VGND VGND VPWR VPWR sky130_fd_sc_hd__decap_4
XFILLER_24_795 VGND VGND VPWR VPWR sky130_fd_sc_hd__decap_12
XPHY_746 VGND VPWR sky130_fd_sc_hd__tapvpwrvgnd_1
XPHY_757 VGND VPWR sky130_fd_sc_hd__tapvpwrvgnd_1
XPHY_768 VGND VPWR sky130_fd_sc_hd__tapvpwrvgnd_1
XFILLER_135_3 VGND VGND VPWR VPWR sky130_fd_sc_hd__decap_12
XPHY_2079 VGND VPWR sky130_fd_sc_hd__tapvpwrvgnd_1
XPHY_1356 VGND VPWR sky130_fd_sc_hd__tapvpwrvgnd_1
XPHY_1345 VGND VPWR sky130_fd_sc_hd__tapvpwrvgnd_1
XPHY_1334 VGND VPWR sky130_fd_sc_hd__tapvpwrvgnd_1
XFILLER_11_445 VGND VGND VPWR VPWR sky130_fd_sc_hd__decap_4
XFILLER_11_434 VGND VGND VPWR VPWR sky130_fd_sc_hd__decap_4
XFILLER_23_53 VGND VGND VPWR VPWR sky130_fd_sc_hd__decap_4
XPHY_779 VGND VPWR sky130_fd_sc_hd__tapvpwrvgnd_1
XFILLER_139_42 VGND VGND VPWR VPWR sky130_fd_sc_hd__fill_1
XPHY_1389 VGND VPWR sky130_fd_sc_hd__tapvpwrvgnd_1
XPHY_1378 VGND VPWR sky130_fd_sc_hd__tapvpwrvgnd_1
XPHY_1367 VGND VPWR sky130_fd_sc_hd__tapvpwrvgnd_1
XFILLER_137_664 VGND VGND VPWR VPWR sky130_fd_sc_hd__decap_12
XFILLER_109_388 VGND VGND VPWR VPWR sky130_fd_sc_hd__decap_4
XFILLER_105_561 VGND VGND VPWR VPWR sky130_fd_sc_hd__decap_8
XFILLER_120_531 VGND VGND VPWR VPWR sky130_fd_sc_hd__decap_4
XFILLER_66_629 VGND VGND VPWR VPWR sky130_fd_sc_hd__decap_4
XFILLER_19_512 VGND VGND VPWR VPWR sky130_fd_sc_hd__fill_1
XFILLER_58_180 VGND VGND VPWR VPWR sky130_fd_sc_hd__decap_6
XFILLER_73_161 VGND VGND VPWR VPWR sky130_fd_sc_hd__decap_8
XFILLER_62_824 VGND VGND VPWR VPWR sky130_fd_sc_hd__fill_1
XFILLER_73_172 VGND VGND VPWR VPWR sky130_fd_sc_hd__decap_4