*SPEF "IEEE 1481-1998"
*DESIGN "test_2"
*DATE "Wed May 19 21:26:45 2021"
*VENDOR "AUC CSCE Department"
*PROGRAM "SPEF Extractor"
*VERSION "1.0"
*DESIGN_FLOW "PIN_CAP NONE"
*DIVIDER /
*DELIMITER :
*BUS_DELIMITER []
*T_UNIT 1.00000 NS
*C_UNIT 1.00000 PF
*R_UNIT 1.00000 OHM
*L_UNIT 1.00000 HENRY


*NAME_MAP
*0 a[0]
*1 a[1]
*2 b[0]
*3 b[1]
*4 f_and[0]
*5 f_and[1]
*6 f_xor[0]
*7 f_xor[1]
*8 _00_
*9 _01_
*10 _02_
*11 _03_
*12 net1
*13 net2
*14 net3
*15 net4
*16 net5
*17 net6
*18 net7
*19 net8

*D_NET *0 0.0007428525478600001
*CONN
*P a[0] I
*I input1:A I
*CAP
0 *0:1 0.00022243310784000002
1 *0:3 0.0005204194400200001
2 input1:A 0
*RES
0 *0:1 *0:2 2.4285714285714284
1 *0:3 *0:2 0.4107142857142857
2 *0:3 *0:4 5.3125
3 input1:A input1:A 0
4 input1:A *0:4 0
*END

*D_NET *1 0.0008336583476
*CONN
*P a[1] I
*I input2:A I
*CAP
3 *1:1 0.0003596407917
4 *1:3 0.00047401755590000005
5 *1:4 0
6 input2:A 0
*RES
5 *1:1 *1:2 0.6125666666666667
6 *1:3 *1:4 5.3125
7 *1:4 *1:2 0
8 input2:A input2:A 0
9 input2:A *1:3 0
*END

*D_NET *2 0.0004364197454
*CONN
*P b[0] I
*I input3:A I
*CAP
7 *2:1 0.0003596407917
8 *2:3 7.67789537e-05
9 *2:4 0
10 input3:A 0
*RES
10 *2:1 *2:2 0.6125666666666667
11 *2:3 *2:4 0.7589285714285713
12 *2:4 *2:2 0
13 input3:A input3:A 0
14 input3:A *2:3 0
*END

*D_NET *3 0.00108705459334
*CONN
*P b[1] I
*I input4:A I
*CAP
11 *3:1 0.0006858781437400002
12 *3:3 0.00040117644959999997
13 input4:A 0
*RES
15 *3:1 *3:2 7.741071428571428
16 *3:3 input4:A 4.107142857142857
17 *3:3 *3:2 0
18 input4:A input4:A 0
*END

*D_NET *4 0.00076671050334
*CONN
*P f_and[0] O
*I output5:X O
*CAP
14 *4:1 5.034052896000001e-05
15 *4:2 0.00012974410066
16 *4:3 4.640188412000001e-05
17 *4:4 0.0005402239896
18 output5:X 0
*RES
19 *4:1 output5:X 0.4107142857142857
20 *4:2 *4:3 1.3660714285714284
21 *4:3 *4:4 0.4107142857142857
22 *4:4 *4:5 6.07142857142857
23 output5:X output5:X 0
24 *4:1 *4:2 0
*END

*D_NET *5 0.0011260363623
*CONN
*P f_and[1] O
*I output6:X O
*CAP
19 output6:X 0.00044015821855999997
20 *5:2 0.0006858781437400002
21 *5:1 0
*RES
25 output6:X *5:1 4.517857142857142
26 *5:2 *5:3 7.741071428571428
27 output6:X output6:X 0
28 *5:1 *5:2 0
*END

*D_NET *6 0.00057722300776
*CONN
*P f_xor[0] O
*I output7:X O
*CAP
22 output7:X 0.00016728583584
23 *6:2 5.029638022e-05
24 *6:4 0.0003596407917
25 *6:1 0
*RES
29 output7:X *6:1 1.6428571428571428
30 *6:2 *6:3 0.45535714285714285
31 *6:4 *6:5 0.6125666666666667
32 output7:X output7:X 0
33 *6:1 *6:3 0
34 *6:2 *6:4 0
*END

*D_NET *7 0.00121810771612
*CONN
*P f_xor[1] O
*I output8:X O
*CAP
26 output8:X 0.0003621946806399999
27 *7:2 0.00043120197672
28 *7:3 0.00026215696806
29 *7:5 0.0001625540907
30 *7:1 0
*RES
35 output8:X *7:1 3.6964285714285707
36 *7:2 *7:1 341.59999999999997
37 *7:3 *7:4 2.883928571428571
38 *7:5 *7:6 0.25223333333333336
39 output8:X output8:X 0
40 *7:1 *7:1 0
41 *7:2 *7:2 0
42 *7:2 *7:4 0
43 *7:3 *7:5 0
*END

*D_NET *8 0.00340414539576
*CONN
*I _10_:A2 I
*I _06_:B I
*I _05_:Y O
*CAP
31 *8:1 0.00028423114272
32 _10_:A2 4.017137184e-05
33 *8:3 0.0011808118288000001
34 *8:4 0.0002062676048
35 *8:5 4.017137184e-05
36 *8:6 0.00165249207576
37 *8:2 0
38 _05_:Y 0
39 _06_:B 0
*RES
44 *8:1 *8:2 2.875
45 _10_:A2 *8:1 0.30357142857142855
46 *8:3 _05_:Y 12.321428571428571
47 *8:4 *8:5 2.0535714285714284
48 *8:5 _06_:B 0.30357142857142855
49 *8:6 *8:7 18.82142857142857
50 *8:2 *8:6 0
51 _10_:A2 _10_:A2 0
52 _05_:Y _05_:Y 0
53 *8:3 *8:8 0
54 *8:4 *8:7 0
55 _06_:B _06_:B 0
*END

*D_NET *9 0.0023944576434
*CONN
*I _11_:A1 I
*I _09_:A I
*I _07_:Y O
*CAP
40 *9:1 5.034052896000001e-05
41 *9:2 7.346055096e-05
42 _11_:A1 0.0004803295904
43 _07_:Y 0.00032321291168
44 *9:4 0.0014671140614000001
45 _09_:A 0
46 *9:3 0
*RES
56 *9:1 _09_:A 0.4107142857142857
57 *9:2 *9:1 48.79999999999999
58 _11_:A1 *9:2 4.517857142857142
59 _11_:A1 _11_:A1 0.30357142857142855
60 _07_:Y *9:3 3.2857142857142856
61 *9:4 *9:5 16.69642857142857
62 _11_:A1 _11_:A1 0
63 _11_:A1 *9:4 0
64 _09_:A _09_:A 0
65 *9:1 *9:1 0
66 *9:2 *9:2 0
67 *9:3 *9:5 0
68 _07_:Y _07_:Y 0
*END

*D_NET *10 0.0015117343128799997
*CONN
*I _11_:A2 I
*I _09_:B I
*I _08_:Y O
*CAP
47 _08_:Y 0.0003621946806399999
48 *10:2 0.00038132854871999994
49 _11_:A2 8.161388832e-05
50 *10:4 8.932229792e-05
51 *10:5 4.017137184e-05
52 *10:6 0.00055710352544
53 *10:1 0
54 _09_:B 0
55 *10:7 0
*RES
69 _08_:Y *10:1 3.6964285714285707
70 *10:2 *10:3 4.249999999999999
71 _11_:A2 _11_:A2 0.01339285714285714
72 _11_:A2 *10:4 0.6071428571428571
73 *10:4 *10:5 0.8214285714285714
74 *10:5 *10:6 0.30357142857142855
75 *10:6 *10:7 5.75
76 _08_:Y _08_:Y 0
77 *10:1 *10:3 0
78 _09_:B _09_:B 0
79 _09_:B *10:2 0
80 _11_:A2 _11_:A2 0
81 *10:7 *10:8 0
*END

*D_NET *11 0.00222051186824
*CONN
*I _10_:A1 I
*I _06_:A I
*I _04_:Y O
*CAP
56 *11:1 5.034052896000001e-05
57 *11:2 0.00051374141612
58 *11:4 0.00040117644959999997
59 *11:3 0.00125525347356
60 _04_:Y 0
61 _10_:A1 0
62 _06_:A 0
*RES
82 *11:1 _10_:A1 0.4107142857142857
83 *11:2 *11:3 5.767857142857142
84 *11:4 _06_:A 4.107142857142857
85 *11:3 *11:5 14.267857142857142
86 _04_:Y _04_:Y 0
87 _04_:Y *11:3 0
88 _10_:A1 _10_:A1 0
89 *11:1 *11:2 0
90 *11:4 *11:5 0
91 _06_:A _06_:A 0
*END

*D_NET *12 0.00229891789912
*CONN
*I input1:X O
*I _05_:A I
*CAP
63 input1:X 0.0004791399875199999
64 *12:2 0.00165249207576
65 *12:4 0.00016728583584
66 *12:1 0
67 _05_:A 0
*RES
92 input1:X *12:1 4.928571428571428
93 *12:2 *12:3 18.82142857142857
94 *12:4 _05_:A 1.6428571428571428
95 input1:X input1:X 0
96 *12:1 *12:2 0
97 *12:4 *12:3 0
98 _05_:A _05_:A 0
*END

*D_NET *13 0.00184713122152
*CONN
*I input2:X O
*I _08_:A I
*CAP
68 *13:1 0.00012830406688
69 *13:2 0.00016728583584
70 *13:4 0.0005402239896
71 input2:X 0.0002062676048
72 *13:7 0.0008050497244000001
73 _08_:A 0
74 *13:3 0
75 *13:6 0
*RES
99 *13:1 _08_:A 1.232142857142857
100 *13:2 *13:3 1.6428571428571428
101 *13:4 *13:5 6.07142857142857
102 input2:X *13:6 2.0535714285714284
103 *13:7 *13:8 9.107142857142856
104 *13:1 *13:7 0
105 _08_:A _08_:A 0
106 *13:3 *13:8 0
107 *13:2 *13:4 0
108 *13:6 *13:5 0
109 input2:X input2:X 0
*END

*D_NET *14 0.00025879025880000005
*CONN
*I input3:X O
*I _04_:A I
*CAP
76 *14:1 0.00016946796088000002
77 *14:3 8.932229792e-05
78 _04_:A 0
79 input3:X 0
*RES
110 *14:1 *14:2 1.8214285714285714
111 *14:3 input3:X 0.8214285714285714
112 _04_:A _04_:A 0
113 _04_:A *14:1 0
114 *14:3 *14:2 0
115 input3:X input3:X 0
*END

*D_NET *15 0.00207621325144
*CONN
*I input4:X O
*I _07_:A I
*CAP
80 *15:1 0.00207621325144
81 input4:X 0
82 _07_:A 0
*RES
116 *15:1 *15:2 23.678571428571427
117 input4:X input4:X 0
118 input4:X *15:1 0
119 _07_:A _07_:A 0
120 _07_:A *15:2 0
*END

*D_NET *16 0.00286700910136
*CONN
*I output5:A I
*I _06_:Y O
*I _10_:B1 I
*CAP
83 _10_:B1 0.00024524937376
84 *16:2 0.00012830406688
85 *16:3 0.00035484597524
86 *16:5 0.00032321291168
87 *16:6 4.640188412000001e-05
88 *16:7 2.3813806740000006e-05
89 *16:8 0.00174518108294
90 *16:1 0
91 _06_:Y 0
92 output5:A 0
*RES
121 _10_:B1 *16:1 2.464285714285714
122 *16:2 _06_:Y 1.232142857142857
123 *16:3 *16:4 3.946428571428571
124 *16:5 output5:A 3.2857142857142856
125 *16:6 *16:7 0.4107142857142857
126 *16:7 *16:3 0.15178571428571427
127 *16:8 *16:6 19.88392857142857
128 _10_:B1 _10_:B1 0
129 *16:1 *16:8 0
130 _06_:Y _06_:Y 0
131 *16:2 *16:3 0
132 *16:5 *16:4 0
133 output5:A output5:A 0
*END

*D_NET *17 0.0027804370924
*CONN
*I output6:A I
*I _09_:Y O
*I _11_:B1 I
*CAP
93 _09_:Y 0.0003621946806399999
94 _11_:B1 0.00032321291168
95 *17:2 6.898398368e-05
96 *17:3 0.00024524937376
97 *17:4 0.00012830406688
98 *17:5 0.00165249207576
99 *17:1 0
100 output6:A 0
*RES
134 _09_:Y *17:1 3.6964285714285707
135 _11_:B1 *17:2 3.2857142857142856
136 *17:2 *17:3 0.6071428571428571
137 *17:3 _09_:Y 2.464285714285714
138 *17:4 output6:A 1.232142857142857
139 *17:5 *17:6 18.82142857142857
140 _09_:Y _09_:Y 0
141 *17:1 *17:5 0
142 _11_:B1 _11_:B1 0
143 *17:4 *17:6 0
144 output6:A output6:A 0
*END

*D_NET *18 0.00232602620792
*CONN
*I output7:A I
*I _10_:Y O
*CAP
101 *18:1 5.034052896000001e-05
102 *18:2 0.0010169103122400001
103 _10_:Y 0.00125877536672
104 output7:A 0
105 *18:4 0
*RES
145 *18:1 output7:A 0.4107142857142857
146 *18:2 *18:3 11.535714285714285
147 _10_:Y *18:4 13.142857142857142
148 output7:A output7:A 0
149 *18:1 *18:3 0
150 *18:4 *18:2 0
151 _10_:Y _10_:Y 0
*END

*D_NET *19 0.0016984166332000001
*CONN
*I output8:A I
*I _11_:Y O
*CAP
106 *19:1 0.00075201237024
107 *19:2 0.00059318913656
108 *19:4 0.0003532151264
109 output8:A 0
110 *19:5 0
111 _11_:Y 0
*RES
152 *19:1 output8:A 7.803571428571428
153 *19:2 *19:3 6.678571428571428
154 *19:4 *19:5 2.875
155 *19:4 _11_:Y 0.6071428571428571
156 output8:A output8:A 0
157 *19:1 *19:2 0
158 *19:5 *19:3 0
159 _11_:Y _11_:Y 0
*END

