*SPEF "IEEE 1481-1998"
*DESIGN "test_1"
*DATE "Wed May 19 21:03:55 2021"
*VENDOR "AUC CSCE Department"
*PROGRAM "SPEF Extractor"
*VERSION "1.0"
*DESIGN_FLOW "PIN_CAP NONE"
*DIVIDER /
*DELIMITER :
*BUS_DELIMITER []
*T_UNIT 1.00000 NS
*C_UNIT 1.00000 PF
*R_UNIT 1.00000 OHM
*L_UNIT 1.00000 HENRY


*NAME_MAP
*0 clk
*1 rst
*2 val[0]
*3 val[1]
*4 _0_
*5 _1_
*6 _2_
*7 _3_
*8 net1
*9 net2
*10 net3
*11 clknet_0_clk
*12 clknet_1_0_0_clk
*13 clknet_1_1_0_clk

*D_NET *0 0.0027701948174800005
*CONN
*P clk I
*I clkbuf_0_clk:A I
*CAP
0 clkbuf_0_clk:A 0.00012830406688
1 *0:2 0.0015333204951000002
2 *0:4 0.0011085702555
3 *0:1 0
*RES
0 clkbuf_0_clk:A *0:1 1.232142857142857
1 *0:2 *0:3 17.455357142857142
2 *0:4 *0:5 1.9818333333333336
3 clkbuf_0_clk:A clkbuf_0_clk:A 0
4 *0:1 *0:3 0
5 *0:2 *0:4 0
*END

*D_NET *1 0.00100094418344
*CONN
*P rst I
*I input1:A I
*CAP
4 *1:1 0.0003596407917
5 *1:3 0.00047401755590000005
6 *1:5 0.00016728583584
7 *1:4 0
8 input1:A 0
*RES
6 *1:1 *1:2 0.6125666666666667
7 *1:3 *1:4 5.3125
8 *1:5 input1:A 1.6428571428571428
9 *1:4 *1:2 0
10 *1:5 *1:3 0
11 input1:A input1:A 0
*END

*D_NET *2 0.0011260363623
*CONN
*P val[0] O
*I output2:X O
*CAP
9 output2:X 0.00044015821855999997
10 *2:2 0.0006858781437400002
11 *2:1 0
*RES
12 output2:X *2:1 4.517857142857142
13 *2:2 *2:3 7.741071428571428
14 output2:X output2:X 0
15 *2:1 *2:2 0
*END

*D_NET *3 0.00119001652222
*CONN
*P val[1] O
*I output3:X O
*CAP
12 *3:1 0.00063291299678
13 *3:3 0.00055710352544
14 output3:X 0
*RES
16 *3:1 *3:2 7.133928571428571
17 *3:3 output3:X 5.75
18 *3:3 *3:2 0
19 output3:X output3:X 0
*END

*D_NET *4 0.0017817277419200001
*CONN
*I _8_:D I
*I _6_:B1 I
*I _6_:A1_N I
*I _5_:Y O
*CAP
15 *4:1 0.00028423114272
16 *4:2 0.00075208457744
17 _6_:B1 0.00027525158848
18 *4:4 0.00047016043327999994
19 _5_:Y 0
20 _6_:A1_N 0
21 _8_:D 0
*RES
20 *4:1 _6_:B1 2.875
21 *4:2 *4:3 8.499999999999998
22 _6_:B1 _6_:A1_N 2.0535714285714284
23 _6_:B1 _6_:B1 0.6071428571428571
24 *4:4 _8_:D 4.107142857142857
25 *4:4 _6_:A1_N 0.6071428571428571
26 _6_:B1 _6_:B1 0
27 *4:1 *4:3 0
28 _5_:Y _5_:Y 0
29 _5_:Y *4:2 0
30 _6_:A1_N _6_:A1_N 0
31 _8_:D _8_:D 0
*END

*D_NET *5 0.0011483000750000002
*CONN
*I _9_:D I
*I _6_:X O
*CAP
22 *5:1 9.440687648e-05
23 *5:2 0.00030188082828000006
24 _6_:X 0.00075201237024
25 _9_:D 0
26 *5:4 0
*RES
32 *5:1 _9_:D 0.8749999999999999
33 *5:2 *5:3 3.339285714285714
34 _6_:X *5:4 7.803571428571428
35 _9_:D _9_:D 0
36 *5:1 *5:2 0
37 *5:4 *5:3 0
38 _6_:X _6_:X 0
*END

*D_NET *6 0.0018493145935599999
*CONN
*I _8_:RESET_B I
*I _7_:A I
*I _4_:Y O
*CAP
27 *6:1 0.00016728583584
28 _4_:Y 0.00023626981952
29 *6:3 0.0004023660524799999
30 *6:4 0.00104339288572
31 *6:2 0
32 _7_:A 0
*RES
39 *6:1 _8_:RESET_B 1.6428571428571428
40 _4_:Y *6:2 1.6428571428571428
41 *6:3 _7_:A 0.30357142857142855
42 *6:3 _4_:Y 3.6964285714285707
43 _4_:Y _4_:Y 0.6071428571428571
44 *6:4 *6:5 11.839285714285714
45 *6:1 *6:4 0
46 _4_:Y _4_:Y 0
47 *6:2 *6:5 0
48 _7_:A _7_:A 0
*END

*D_NET *7 0.0018796492710000002
*CONN
*I _9_:RESET_B I
*I _7_:X O
*CAP
33 *7:1 0.0002062676048
34 _7_:X 0.0002062676048
35 *7:3 0.0014671140614000001
36 *7:2 0
*RES
49 *7:1 _9_:RESET_B 2.0535714285714284
50 _7_:X *7:2 2.0535714285714284
51 *7:3 *7:4 16.69642857142857
52 *7:1 *7:3 0
53 *7:2 *7:4 0
54 _7_:X _7_:X 0
*END

*D_NET *8 0.0006747959422399998
*CONN
*I input1:X O
*I _4_:A I
*CAP
37 _4_:A 4.017137184e-05
38 *8:2 0.0005181217564799999
39 *8:3 0.00011650281392
40 input1:X 0
*RES
55 _4_:A *8:1 0.30357142857142855
56 *8:2 *8:1 5.339285714285714
57 *8:3 *8:4 1.2142857142857142
58 _4_:A _4_:A 0
59 *8:2 *8:3 0
60 input1:X input1:X 0
61 input1:X *8:4 0
*END

*D_NET *9 0.0036598857673000003
*CONN
*I output2:A I
*I _5_:A I
*I _8_:Q O
*CAP
41 *9:1 8.932229792e-05
42 *9:2 2.3813806740000006e-05
43 *9:4 0.0013678617913799999
44 *9:5 0.0007918084376600001
45 _5_:A 0.0013367389046400001
46 *9:7 5.034052896000001e-05
47 _8_:Q 0
48 *9:6 0
49 output2:A 0
*RES
62 *9:1 _8_:Q 0.8214285714285714
63 *9:2 *9:3 0.15178571428571427
64 *9:4 *9:2 0.4107142857142857
65 *9:5 *9:4 8.95535714285714
66 _5_:A *9:6 13.964285714285714
67 *9:7 output2:A 0.4107142857142857
68 *9:4 *9:8 15.026785714285712
69 _8_:Q _8_:Q 0
70 *9:1 *9:3 0
71 *9:6 *9:5 0
72 _5_:A _5_:A 0
73 *9:7 *9:8 0
74 output2:A output2:A 0
*END

*D_NET *10 0.00174929674292
*CONN
*I output3:A I
*I _6_:A2_N I
*I _6_:B2 I
*I _9_:Q O
*CAP
50 *10:1 0.0003621946806399999
51 *10:2 0.0005402239896
52 output3:A 0.0002062676048
53 _6_:B2 8.932229792e-05
54 *10:3 0.00046077626916000004
55 *10:7 4.017137184e-05
56 *10:5 5.034052896000001e-05
57 _9_:Q 0
58 *10:4 0
59 _6_:A2_N 0
*RES
75 *10:1 _9_:Q 3.6964285714285707
76 *10:2 *10:3 6.07142857142857
77 output3:A *10:4 2.0535714285714284
78 _6_:B2 *10:5 0.8214285714285714
79 *10:3 *10:6 5.160714285714286
80 *10:7 _6_:A2_N 0.30357142857142855
81 *10:5 *10:7 0.4107142857142857
82 _9_:Q _9_:Q 0
83 *10:1 *10:3 0
84 *10:4 *10:2 0
85 output3:A output3:A 0
86 _6_:B2 _6_:B2 0
87 *10:5 *10:6 0
88 _6_:A2_N _6_:A2_N 0
*END

*D_NET *11 0.00225566682496
*CONN
*I clkbuf_1_1_0_clk:A I
*I clkbuf_1_0_0_clk:A I
*I clkbuf_0_clk:X O
*CAP
60 *11:1 0.00035484597524
61 *11:3 0.0011808118288000001
62 *11:4 0.0002062676048
63 *11:2 0.00051374141612
64 clkbuf_0_clk:X 0
65 clkbuf_1_1_0_clk:A 0
66 clkbuf_1_0_0_clk:A 0
*RES
89 *11:1 *11:2 3.946428571428571
90 *11:3 clkbuf_1_1_0_clk:A 12.321428571428571
91 *11:4 clkbuf_1_0_0_clk:A 2.0535714285714284
92 *11:2 *11:5 5.767857142857142
93 clkbuf_0_clk:X clkbuf_0_clk:X 0
94 clkbuf_0_clk:X *11:2 0
95 *11:3 *11:1 0
96 clkbuf_1_1_0_clk:A clkbuf_1_1_0_clk:A 0
97 clkbuf_1_0_0_clk:A clkbuf_1_0_0_clk:A 0
98 *11:4 *11:5 0
*END

*D_NET *12 0.00039959352116
*CONN
*I _8_:CLK I
*I clkbuf_1_0_0_clk:X O
*CAP
67 *12:1 5.034052896000001e-05
68 *12:2 0.00014298538739999998
69 clkbuf_1_0_0_clk:X 0.0002062676048
70 _8_:CLK 0
71 *12:4 0
*RES
99 *12:1 _8_:CLK 0.4107142857142857
100 *12:2 *12:3 1.5178571428571426
101 clkbuf_1_0_0_clk:X *12:4 2.0535714285714284
102 _8_:CLK _8_:CLK 0
103 *12:1 *12:2 0
104 *12:4 *12:3 0
105 clkbuf_1_0_0_clk:X clkbuf_1_0_0_clk:X 0
*END

*D_NET *13 0.00015900422412000004
*CONN
*I _9_:CLK I
*I clkbuf_1_1_0_clk:X O
*CAP
72 *13:1 9.002024044000002e-05
73 *13:3 6.898398368e-05
74 clkbuf_1_1_0_clk:X 0
75 _9_:CLK 0
*RES
106 *13:1 *13:2 0.9107142857142857
107 *13:3 _9_:CLK 0.6071428571428571
108 clkbuf_1_1_0_clk:X clkbuf_1_1_0_clk:X 0
109 clkbuf_1_1_0_clk:X *13:1 0
110 *13:3 *13:2 0
111 _9_:CLK _9_:CLK 0
*END

